/*--------------------------------*- C++ -*----------------------------------*\
  =========                 |
  \\      /  F ield         | OpenFOAM: The Open Source CFD Toolbox
   \\    /   O peration     | Website:  https://openfoam.org
    \\  /    A nd           | Version:  8
     \\/     M anipulation  |
\*---------------------------------------------------------------------------*/
FoamFile
{
    version     2.0;
    format      ascii;
    class       volScalarField;
    location    "0";
    object      air;
}
// * * * * * * * * * * * * * * * * * * * * * * * * * * * * * * * * * * * * * //

dimensions      [0 0 0 0 0 0 0];

internalField   uniform 9.88738E-01;

boundaryField
{
    inlet
    {
        type            fixedValue;
        //type            calculated
        value           $internalField;
    }

    "(wall_.*|closet|manikin|unit|desk|monitor|fluorescent_.*)"
    {
        type            zeroGradient;
        value           $internalField;
    }

    outlet
    {
        type            zeroGradient;
        value           $internalField;
    }
}

// ************************************************************************* //
