/*--------------------------------*- C++ -*----------------------------------*\
  =========                 |
  \\      /  F ield         | OpenFOAM: The Open Source CFD Toolbox
   \\    /   O peration     | Website:  https://openfoam.org
    \\  /    A nd           | Version:  8
     \\/     M anipulation  |
\*---------------------------------------------------------------------------*/
FoamFile
{
    version     2.0;
    format      ascii;
    class       dictionary;
    location    "constant";
    object      thermophysicalProperties.gas;
}
// * * * * * * * * * * * * * * * * * * * * * * * * * * * * * * * * * * * * * //
thermoType
{
    type            heRhoThermo;
    mixture         multiComponentMixture;
    transport       sutherland;
    thermo          janaf;
    //thermo          hConst;
    equationOfState perfectGas;
    specie          specie;
    //energy          sensibleInternalEnergy;
    energy          sensibleEnthalpy;
}

inertSpecie air;

species
(
    air
    H2O
    CO2
);

H2O
{
    specie
    {
        molWeight       18.0153;
    }
    thermodynamics
    {
        /*
        Cp          1866.8;
        Hf          0;
        */
        
        Tlow            200;
        Thigh           3500;
        Tcommon         1000;
        highCpCoeffs    ( 3.03399 0.00217692 -1.64073e-07 -9.7042e-11 1.68201e-14 -30004.3 4.96677 );
        lowCpCoeffs     ( 4.19864 -0.00203643 6.5204e-06 -5.48797e-09 1.77198e-12 -30293.7 -0.849032 );
   
    }
    transport
    {
        //As              1.67212e-06;
        //Ts              170.672;
        As              1.458e-06;
        Ts              110.4;
    }
}

air
{
    specie
    {
        molWeight       28.9596;
    }
    thermodynamics
    {
        /*
        Cp          1007;
        Hf          0;
        */
        
        Tlow            200;
        Thigh           3500;
        Tcommon         1000;
        highCpCoeffs    ( 3.57304 -7.24383e-04 1.67022e-06 -1.26501e-10 -4.20580e-13 -1047.41 3.12431 );
        lowCpCoeffs     ( 3.09589 1.22835e-03 -4.14267e-07 6.56910e-11 -3.87021e-15 -983.191 5.34161 );
        
    }
    transport
    {
        //As              1.67212e-06;
        //Ts              170.672;
        As              1.458e-06;
        Ts              110.4;
    }
}

CO2
{
    specie
    {
        molWeight       44.01;
    }
    thermodynamics
    {
        /*
        Cp          1007;
        Hf          0;
        */
        
        Tlow            200;
        Thigh           3500;
        Tcommon         1000;
        highCpCoeffs    ( 3.57304 -7.24383e-04 1.67022e-06 -1.26501e-10 -4.20580e-13 -1047.41 3.12431 );
        lowCpCoeffs     ( 3.09589 1.22835e-03 -4.14267e-07 6.56910e-11 -3.87021e-15 -983.191 5.34161 );
        
    }
    transport
    {
        //As              1.67212e-06;
        //Ts              170.672;
        As              1.458e-06;
        Ts              110.4;
    }
}

/*
thermoType
{
    type            heRhoThermo;
    mixture         pureMixture;
    transport       const;
    thermo          hConst;
    equationOfState perfectGas;
    specie          specie;
    energy          sensibleInternalEnergy;
}

mixture
{
    specie
    {
        molWeight   28.9;
    }
    thermodynamics
    {
        Cp          1007;
        Hf          0;
    }
    transport
    {
        mu          1.84e-05;
        Pr          0.7;
    }
}
*/
// ************************************************************************* //
