/*--------------------------------*- C++ -*----------------------------------*\
  =========                 |
  \\      /  F ield         | OpenFOAM: The Open Source CFD Toolbox
   \\    /   O peration     | Website:  https://openfoam.org
    \\  /    A nd           | Version:  8
     \\/     M anipulation  |
\*---------------------------------------------------------------------------*/
FoamFile
{
    version     2.0;
    format      ascii;
    class       dictionary;
    location    "system";
    object      fvSchemes;
}
// * * * * * * * * * * * * * * * * * * * * * * * * * * * * * * * * * * * * * //

ddtSchemes
{
    default         Euler;
}

gradSchemes
{
    default         Gauss linear;
}

divSchemes
{
    default                         none;

    //div(phi,alpha.air)              Gauss vanLeer;
    //div(phi,alpha.water)            Gauss vanLeer;
    //div(phir,alpha.water,alpha.air) Gauss vanLeer;
    //div(phir,alpha.air,alpha.water) Gauss vanLeer;
    
    //div(phir,alpha.liquid,alpha.gas) Gauss vanLeer;
    //div(phir,alpha.gas,alpha.liquid) Gauss vanLeer;
    
    "div\(phi,alpha.*\)"            Gauss vanLeer;
    "div\(phir,alpha.*\)"           Gauss vanLeer;

    "div\(alphaRhoPhi.*,U.*\)"      Gauss limitedLinearV 1;
    "div\(phi.*,U.*\)"              Gauss limitedLinearV 1;
    
    "div\(alphaRhoPhi.*,Yi\)"       Gauss limitedLinear 1;

    "div\(alphaRhoPhi.*,(h|e|f).*\)" Gauss limitedLinear 1;
    "div\(alphaRhoPhi.*,f.*\)"      Gauss upwind;
    "div\(alphaRhoPhi.*,K.*\)"      Gauss limitedLinear 1;
    "div\(alphaPhi.*,p\)"           Gauss limitedLinear 1;

    "div\(alphaRhoPhi.*,(k|epsilon|omega).*\)" Gauss limitedLinear 1;
    "div\(phim,(k|epsilon)m\)"      Gauss limitedLinear 1;

    "div\(\(\(\(alpha.*\*thermo:rho.*\)*nuEff.*\)\*dev2\(T\(grad\(U.*\)\)\)\)\)" Gauss linear;
}

laplacianSchemes
{
    default         Gauss linear uncorrected;
}

interpolationSchemes
{
    default         linear;
}

snGradSchemes
{
    default         uncorrected;
}

wallDist
{
    method meshWave;
}


// ************************************************************************* //
