/*--------------------------------*- C++ -*----------------------------------*\
  =========                 |
  \\      /  F ield         | OpenFOAM: The Open Source CFD Toolbox
   \\    /   O peration     | Website:  https://openfoam.org
    \\  /    A nd           | Version:  8
     \\/     M anipulation  |
\*---------------------------------------------------------------------------*/
FoamFile
{
    version     2.0;
    format      ascii;
    class       dictionary;
    location    "system";
    object      fvSolution;
}
// * * * * * * * * * * * * * * * * * * * * * * * * * * * * * * * * * * * * * //

solvers
{
    "alpha.*"
    {
        nAlphaCorr      1;
        nAlphaSubCycles 2;
    }
    droplets
    {
        nCorr                1;
        tolerance            1e-4;
        scale                true;
        sourceUpdateInterval 1;
        solveOnFinalIterOnly true;
    }
    p_rgh
    {
        solver          GAMG;
        smoother        DIC;
        tolerance       1e-8;
        relTol          0;
    }

    p_rghFinal
    {
        $p_rgh;
        relTol          0;
    }

    "U.*"
    {
        solver          smoothSolver;
        smoother        symGaussSeidel;
        tolerance       1e-7;
        relTol          0;
        minIter         1;
    }

    "(e|h).*"
    {
        solver          smoothSolver;
        smoother        symGaussSeidel;
        tolerance       1e-7;
        relTol          0;
        minIter         1;
    }

    "(k|epsilon|omega|Theta).*"
    {
        solver          smoothSolver;
        smoother        symGaussSeidel;
        tolerance       1e-7;
        relTol          0;
        minIter         1;
    }

    "f.*"
    {
        solver          PBiCGStab;
        preconditioner  DILU;
        tolerance       1e-6;
        relTol          0;
    }
    
    "Yi.*"
    {
        solver          smoothSolver;
        smoother        symGaussSeidel;
        tolerance       1e-12;
        relTol          0;
        minIter         1;
        residualAlpha   1e-8;
    }
}

PIMPLE
{
    nOuterCorrectors 3;
    nCorrectors         1;
    nNonOrthogonalCorrectors 1;
    nEnergyCorrectors   2;
    faceMomentum        yes;
}

relaxationFactors
{
    fields
    {
        thermalPhaseChange:dmdtf 1.0;
    }

    equations
    {
        ".*"            1.0;
        "e\..*"         0.8;
    }
}


// ************************************************************************* //
